ApiEletroposto/Content/Rede/Rede_CAI_teste_sem_trafos_Power_seq_kVA.txt

SYMMETRICAL COMPONENT POWERS BY CIRCUIT ELEMENT (first 3 phases)                                     Excess Power

Element                          Term    P1(kW)   Q1(kvar)       P2         Q2      P0      Q0       P_Norm      Q_Norm     P_Emerg    Q_Emerg

"Vsource.SOURCE"                  1   -12416.8    -5231.5        0.0        0.1     0.0     0.0
"Vsource.SOURCE"                  2        0.0        0.0        0.0        0.0     0.0     0.0
"Line.12465653_ID5719"            1     -423.3     -202.1       -0.0        0.0     0.0     0.0        0.0        0.0        0.0        0.0
"Line.12465653_ID5719"            2      423.4      202.1        0.0       -0.0    -0.0    -0.0
"Line.12465646_ID4662"            1    -1604.3     -631.3        0.0        0.0    -0.0     0.0        0.0        0.0        0.0        0.0
"Line.12465646_ID4662"            2     1604.4      631.4       -0.0       -0.0     0.0    -0.0
"Line.361598283_ID6421"           1        0.0        0.0        0.0       -0.0     0.0     0.0        0.0        0.0        0.0        0.0
"Line.361598283_ID6421"           2       -0.0       -0.0       -0.0        0.0    -0.0    -0.0
"Line.363434473_ID6207"           1      853.4      209.5       -0.0       -0.0     0.0    -0.0        0.0        0.0        0.0        0.0
"Line.363434473_ID6207"           2     -853.4     -209.5        0.0        0.0    -0.0     0.0
"Line.363434188_ID5983"           1     -623.8     -370.8       -0.0        0.0     0.0     0.0        0.0        0.0        0.0        0.0
"Line.363434188_ID5983"           2      623.8      370.8        0.0       -0.0    -0.0    -0.0
"Line.361598269_ID5059"           1     1767.6      706.4        0.0       -0.0    -0.0    -0.0        0.0        0.0        0.0        0.0
"Line.361598269_ID5059"           2    -1767.5     -706.3       -0.0        0.0     0.0     0.0
"Line.361598276_ID4187"           1    -2434.1    -1064.3        0.0        0.0     0.0     0.0        0.0        0.0        0.0        0.0
"Line.361598276_ID4187"           2     2434.3     1064.7       -0.0       -0.0    -0.0    -0.0
"Line.363434459_ID3365"           1     2953.6     1180.1       -0.0        0.0     0.0     0.0        0.0        0.0        0.0        0.0
"Line.363434459_ID3365"           2    -2953.5    -1179.8        0.0       -0.0    -0.0    -0.0
"Line.12465652_ID6367"            1        0.0       -0.0       -0.0        0.0    -0.0     0.0        0.0        0.0        0.0        0.0
"Line.12465652_ID6367"            2       -0.0        0.0        0.0       -0.0     0.0    -0.0
"Line.12465654_ID5411"            1    -1640.1     -741.8        0.0        0.0     0.0     0.0        0.0        0.0        0.0        0.0
"Line.12465654_ID5411"            2     1640.1      741.9       -0.0       -0.0    -0.0    -0.0
"Line.12465633_ID5720"            1     -423.3     -202.1       -0.0        0.0     0.0     0.0        0.0        0.0        0.0        0.0
"Line.12465633_ID5720"            2      423.3      202.1        0.0       -0.0    -0.0    -0.0
"Line.12465631_ID4663"            1    -1604.2     -631.1        0.0        0.0    -0.0     0.0        0.0        0.0        0.0        0.0
"Line.12465631_ID4663"            2     1604.3      631.3       -0.0       -0.0     0.0    -0.0
"Line.12465658_ID6208"            1      853.4      209.5       -0.0       -0.0     0.0    -0.0        0.0        0.0        0.0        0.0
"Line.12465658_ID6208"            2     -853.4     -209.4        0.0        0.0    -0.0     0.0
"Line.12465648_ID5984"            1      623.8      370.8        0.0       -0.0    -0.0    -0.0        0.0        0.0        0.0        0.0
"Line.12465648_ID5984"            2     -623.8     -370.8       -0.0        0.0     0.0     0.0
"Line.12465656_ID3366"            1     2953.5     1179.8       -0.0        0.0     0.0     0.0        0.0        0.0        0.0        0.0
"Line.12465656_ID3366"            2    -2953.3    -1179.5        0.0       -0.0    -0.0    -0.0
"Line.12465627_ID6368"            1       -0.0        0.0        0.0       -0.0     0.0    -0.0        0.0        0.0        0.0        0.0
"Line.12465627_ID6368"            2        0.0       -0.0       -0.0        0.0    -0.0     0.0
"Line.12465632_ID5412"            1     1640.1      741.8       -0.0       -0.0    -0.0    -0.0        0.0        0.0        0.0        0.0
"Line.12465632_ID5412"            2    -1640.0     -741.6        0.0        0.0     0.0     0.0
"Line.12465599_ID5721"            1     -423.3     -202.1       -0.0        0.0     0.0     0.0        0.0        0.0        0.0        0.0
"Line.12465599_ID5721"            2      423.3      202.1        0.0       -0.0    -0.0    -0.0
"Line.12465600_ID4664"            1    -1603.9     -630.6        0.0        0.0    -0.0     0.0        0.0        0.0        0.0        0.0
"Line.12465600_ID4664"            2     1604.2      631.1       -0.0       -0.0     0.0    -0.0
"Line.363435145_ID6422"           1        0.0        0.0        0.0       -0.0     0.0     0.0        0.0        0.0        0.0        0.0
"Line.363435145_ID6422"           2       -0.0       -0.0       -0.0        0.0    -0.0    -0.0
"Line.12465658_ID6209"            1     -853.4     -209.4        0.0        0.0    -0.0     0.0        0.0        0.0        0.0        0.0
"Line.12465658_ID6209"            2      853.4      209.4       -0.0       -0.0     0.0    -0.0
"Line.12465628_ID5985"            1      623.8      370.8        0.0       -0.0    -0.0    -0.0        0.0        0.0        0.0        0.0
"Line.12465628_ID5985"            2     -623.8     -370.7       -0.0        0.0     0.0     0.0
"Line.363435121_ID5060"           1     1767.5      706.3        0.0       -0.0    -0.0    -0.0        0.0        0.0        0.0        0.0
"Line.363435121_ID5060"           2    -1767.3     -705.8       -0.0        0.0     0.0     0.0
"Line.363435071_ID4188"           1     2434.1     1064.3       -0.0       -0.0    -0.0    -0.0        0.0        0.0        0.0        0.0
"Line.363435071_ID4188"           2    -2433.6    -1063.4        0.0        0.0     0.0     0.0
"Line.12465630_ID3367"            1     2953.3     1179.5       -0.0        0.0     0.0     0.0        0.0        0.0        0.0        0.0
"Line.12465630_ID3367"            2    -2953.1    -1179.0        0.0       -0.0    -0.0    -0.0
"Line.12465594_ID6369"            1       -0.0        0.0        0.0       -0.0     0.0    -0.0        0.0        0.0        0.0        0.0
"Line.12465594_ID6369"            2        0.0       -0.0       -0.0        0.0    -0.0     0.0
"Line.12465603_ID5413"            1    -1639.7     -741.1        0.0        0.0     0.0     0.0        0.0        0.0        0.0        0.0
"Line.12465603_ID5413"            2     1640.0      741.6       -0.0       -0.0    -0.0    -0.0
"Line.12465599_ID5722"            1     -423.3     -202.1       -0.0        0.0     0.0     0.0        0.0        0.0        0.0        0.0
"Line.12465599_ID5722"            2      423.3      202.1        0.0       -0.0    -0.0    -0.0
"Line.12465600_ID4665"            1    -1603.9     -630.6        0.0        0.0    -0.0     0.0        0.0        0.0        0.0        0.0
"Line.12465600_ID4665"            2     1603.9      630.6       -0.0       -0.0     0.0    -0.0
"Line.12465629_ID6210"            1     -853.4     -209.4        0.0        0.0    -0.0     0.0        0.0        0.0        0.0        0.0
"Line.12465629_ID6210"            2      853.4      209.4       -0.0       -0.0     0.0    -0.0
"Line.12465596_ID5986"            1      623.8      370.7        0.0       -0.0    -0.0    -0.0        0.0        0.0        0.0        0.0
"Line.12465596_ID5986"            2     -623.8     -370.7       -0.0        0.0     0.0     0.0
"Line.12465602_ID3368"            1    -2952.2    -1177.3        0.0       -0.0    -0.0    -0.0        0.0        0.0        0.0        0.0
"Line.12465602_ID3368"            2     2953.1     1179.0       -0.0        0.0     0.0     0.0
"Line.12465586_ID6370"            1       -0.0        0.0        0.0       -0.0     0.0    -0.0        0.0        0.0        0.0        0.0
"Line.12465586_ID6370"            2        0.0       -0.0       -0.0        0.0    -0.0     0.0
"Line.12465603_ID5414"            1    -1639.7     -741.0        0.0        0.0     0.0     0.0        0.0        0.0        0.0        0.0
"Line.12465603_ID5414"            2     1639.7      741.1       -0.0       -0.0    -0.0    -0.0
"Line.12465599_ID5723"            1      423.3      202.1        0.0       -0.0    -0.0    -0.0        0.0        0.0        0.0        0.0
"Line.12465599_ID5723"            2     -423.3     -202.1       -0.0        0.0     0.0     0.0
"Line.12465589_ID4666"            1    -1603.6     -630.0        0.0        0.0    -0.0     0.0        0.0        0.0        0.0        0.0
"Line.12465589_ID4666"            2     1603.9      630.6       -0.0       -0.0     0.0    -0.0
"Line.363435311_ID6423"           1        0.0        0.0        0.0       -0.0     0.0     0.0        0.0        0.0        0.0        0.0
"Line.363435311_ID6423"           2       -0.0       -0.0       -0.0        0.0    -0.0    -0.0
"Line.12465598_ID6211"            1     -853.3     -209.3        0.0        0.0    -0.0     0.0        0.0        0.0        0.0        0.0
"Line.12465598_ID6211"            2      853.4      209.4       -0.0       -0.0     0.0    -0.0
"Line.12465596_ID5987"            1      623.8      370.7        0.0       -0.0    -0.0    -0.0        0.0        0.0        0.0        0.0
"Line.12465596_ID5987"            2     -623.8     -370.6       -0.0        0.0     0.0     0.0
"Line.363435153_ID5061"           1     1767.3      705.8        0.0       -0.0    -0.0    -0.0        0.0        0.0        0.0        0.0
"Line.363435153_ID5061"           2    -1767.1     -705.3       -0.0        0.0     0.0     0.0
"Line.363435303_ID4189"           1    -2433.2    -1062.5        0.0        0.0     0.0     0.0        0.0        0.0        0.0        0.0
"Line.363435303_ID4189"           2     2433.6     1063.4       -0.0       -0.0    -0.0    -0.0
"Line.12465602_ID3369"            1     2952.2     1177.3       -0.0        0.0     0.0     0.0        0.0        0.0        0.0        0.0
"Line.12465602_ID3369"            2    -2952.0    -1177.0        0.0       -0.0    -0.0    -0.0
"Line.12465588_ID5415"            1    -1639.6     -740.7        0.0        0.0     0.0     0.0        0.0        0.0        0.0        0.0
"Line.12465588_ID5415"            2     1639.7      741.0       -0.0       -0.0    -0.0    -0.0
"Line.12465584_ID5724"            1      423.3      202.1        0.0       -0.0    -0.0    -0.0        0.0        0.0        0.0        0.0
"Line.12465584_ID5724"            2     -423.3     -202.1       -0.0        0.0     0.0     0.0
"Line.12465589_ID4667"            1    -1603.3     -629.3        0.0        0.0     0.0     0.0        0.0        0.0        0.0        0.0
"Line.12465589_ID4667"            2     1603.6      630.0       -0.0       -0.0     0.0    -0.0
"Line.12465598_ID6212"            1      853.3      209.3       -0.0       -0.0     0.0    -0.0        0.0        0.0        0.0        0.0
"Line.12465598_ID6212"            2     -853.3     -209.2        0.0        0.0    -0.0     0.0
"Line.12465587_ID5988"            1     -623.7     -370.5       -0.0        0.0     0.0     0.0        0.0        0.0        0.0        0.0
"Line.12465587_ID5988"            2      623.8      370.6        0.0       -0.0    -0.0    -0.0
"Line.12465590_ID3370"            1    -2951.0    -1175.0        0.0       -0.0    -0.0    -0.0        0.0        0.0        0.0        0.0
"Line.12465590_ID3370"            2     2952.0     1177.0       -0.0        0.0     0.0     0.0
"Line.5675047_ID6371"             1        0.0       -0.0       -0.0        0.0    -0.0     0.0        0.0        0.0        0.0        0.0
"Line.5675047_ID6371"             2       -0.0        0.0        0.0       -0.0     0.0    -0.0
"Line.12465638_ID5416"            1     1639.6      740.7       -0.0       -0.0    -0.0    -0.0        0.0        0.0        0.0        0.0
"Line.12465638_ID5416"            2    -1639.6     -740.7        0.0        0.0     0.0     0.0
"Line.12465589_ID4668"            1    -1603.2     -629.1        0.0        0.0     0.0     0.0        0.0        0.0        0.0        0.0
"Line.12465589_ID4668"            2     1603.3      629.3       -0.0       -0.0    -0.0    -0.0
"Line.363438455_ID6424"           1        0.0        0.0        0.0       -0.0     0.0     0.0        0.0        0.0        0.0        0.0
"Line.363438455_ID6424"           2       -0.0       -0.0       -0.0        0.0    -0.0    -0.0
"Line.12465597_ID6213"            1     -853.2     -209.1        0.0        0.0    -0.0     0.0        0.0        0.0        0.0        0.0
"Line.12465597_ID6213"            2      853.3      209.2       -0.0       -0.0     0.0    -0.0
"Line.12465587_ID5989"            1      623.7      370.5        0.0       -0.0    -0.0    -0.0        0.0        0.0        0.0        0.0
"Line.12465587_ID5989"            2     -623.6     -370.4       -0.0        0.0     0.0     0.0
"Line.363435319_ID5062"           1     1767.1      705.3        0.0       -0.0    -0.0    -0.0        0.0        0.0        0.0        0.0
"Line.363435319_ID5062"           2    -1766.7     -704.6       -0.0        0.0     0.0     0.0
"Line.363438448_ID4190"           1    -2432.5    -1061.1        0.0        0.0     0.0     0.0        0.0        0.0        0.0        0.0
"Line.363438448_ID4190"           2     2433.2     1062.5       -0.0       -0.0    -0.0    -0.0
"Line.12465590_ID3371"            1     2951.0     1175.0       -0.0        0.0     0.0     0.0        0.0        0.0        0.0        0.0
"Line.12465590_ID3371"            2    -2949.9    -1172.7        0.0       -0.0    -0.0    -0.0
"Line.5675058_ID6372"             1        0.0       -0.0       -0.0        0.0    -0.0     0.0        0.0        0.0        0.0        0.0
"Line.5675058_ID6372"             2       -0.0        0.0        0.0       -0.0     0.0    -0.0
"Line.5675059_ID6373"             1       -0.0       -0.0        0.0        0.0     0.0     0.0        0.0        0.0        0.0        0.0
"Line.5675059_ID6373"             2        0.0        0.0        0.0        0.0    -0.0     0.0
"Line.5674994_ID5725"             1     -423.3     -202.0       -0.0        0.0     0.0     0.0        0.0        0.0        0.0        0.0
"Line.5674994_ID5725"             2      423.3      202.1        0.0       -0.0    -0.0    -0.0
"Line.12465589_ID4669"            1     1603.2      629.1       -0.0       -0.0    -0.0    -0.0        0.0        0.0        0.0        0.0
"Line.12465589_ID4669"            2    -1603.0     -628.8        0.0        0.0     0.0     0.0
"Line.12465597_ID6214"            1     -853.1     -208.9        0.0        0.0    -0.0     0.0        0.0        0.0        0.0        0.0
"Line.12465597_ID6214"            2      853.2      209.1       -0.0       -0.0     0.0    -0.0
"Line.12465587_ID5990"            1     -623.6     -370.4       -0.0        0.0     0.0     0.0        0.0        0.0        0.0        0.0
"Line.12465587_ID5990"            2      623.6      370.4        0.0       -0.0    -0.0    -0.0
"Line.12465590_ID3372"            1     2949.9     1172.7       -0.0        0.0     0.0     0.0        0.0        0.0        0.0        0.0
"Line.12465590_ID3372"            2    -2949.5    -1171.9        0.0       -0.0    -0.0    -0.0
"Line.5675058_ID6374"             1        0.0       -0.0       -0.0        0.0    -0.0     0.0        0.0        0.0        0.0        0.0
"Line.5675058_ID6374"             2       -0.0        0.0        0.0       -0.0     0.0    -0.0
"Line.5675532_ID5417"             1     1639.6      740.7       -0.0       -0.0    -0.0    -0.0      369.2      166.8        0.0        0.0
"Line.5675532_ID5417"             2    -1639.6     -740.7        0.0        0.0     0.0     0.0
"Line.5675005_ID5726"             1     -423.3     -202.0       -0.0        0.0     0.0     0.0        0.0        0.0        0.0        0.0
"Line.5675005_ID5726"             2      423.3      202.0        0.0       -0.0    -0.0    -0.0
"Line.5675006_ID5727"             1        0.0       -0.0       -0.0        0.0     0.0    -0.0        0.0        0.0        0.0        0.0
"Line.5675006_ID5727"             2       -0.0        0.0        0.0       -0.0     0.0     0.0
"Line.12460924_ID4670"            1     1603.0      628.8       -0.0       -0.0    -0.0    -0.0        0.0        0.0        0.0        0.0
"Line.12460924_ID4670"            2    -1603.0     -628.8        0.0        0.0     0.0     0.0
"Line.363438468_ID6425"           1       -0.0       -0.0       -0.0        0.0     0.0    -0.0        0.0        0.0        0.0        0.0
"Line.363438468_ID6425"           2        0.0        0.0        0.0       -0.0     0.0     0.0
"Line.12465597_ID6215"            1     -853.1     -208.8        0.0        0.0    -0.0     0.0        0.0        0.0        0.0        0.0
"Line.12465597_ID6215"            2      853.1      208.9       -0.0       -0.0     0.0    -0.0
"Line.12461017_ID5991"            1     -623.6     -370.3       -0.0        0.0     0.0     0.0        0.0        0.0        0.0        0.0
"Line.12461017_ID5991"            2      623.6      370.4        0.0       -0.0    -0.0    -0.0
"Line.363439152_ID5063"           1    -1766.3     -703.8       -0.0        0.0     0.0     0.0        0.0        0.0        0.0        0.0
"Line.363439152_ID5063"           2     1766.7      704.6        0.0       -0.0    -0.0    -0.0
"Line.363439161_ID4191"           1     2432.5     1061.1       -0.0       -0.0    -0.0    -0.0        0.0        0.0        0.0        0.0
"Line.363439161_ID4191"           2    -2431.7    -1059.5        0.0        0.0     0.0     0.0
"Line.12461016_ID3373"            1    -2948.6    -1170.1        0.0       -0.0    -0.0    -0.0        0.0        0.0        0.0        0.0
"Line.12461016_ID3373"            2     2949.5     1171.9       -0.0        0.0     0.0     0.0
"Line.5675058_ID6375"             1       -0.0        0.0        0.0       -0.0     0.0    -0.0        0.0        0.0        0.0        0.0
"Line.5675058_ID6375"             2        0.0       -0.0       -0.0        0.0    -0.0     0.0
"Line.5675530_ID5418"             1        0.0       -0.0       -0.0        0.0    -0.0     0.0        0.0        0.0        0.0        0.0
"Line.5675530_ID5418"             2       -0.0        0.0        0.0       -0.0     0.0    -0.0
"Line.5675531_ID5419"             1    -1639.5     -740.6        0.0        0.0     0.0     0.0        0.0        0.0        0.0        0.0
"Line.5675531_ID5419"             2     1639.6      740.7       -0.0       -0.0    -0.0    -0.0
"Line.5675005_ID5728"             1     -414.9     -198.5       -0.0        0.0     0.0     0.0        0.0        0.0        0.0        0.0
"Line.5675005_ID5728"             2      414.9      198.5        0.0       -0.0    -0.0    -0.0
"Line.363438468_ID6426"           1       -0.0        0.0       -0.0        0.0    -0.0    -0.0        0.0        0.0        0.0        0.0
"Line.363438468_ID6426"           2        0.0        0.0        0.0       -0.0    -0.0    -0.0
"Line.12461015_ID6216"            1     -853.0     -208.7        0.0        0.0    -0.0     0.0        0.0        0.0        0.0        0.0
"Line.12461015_ID6216"            2      853.1      208.8       -0.0       -0.0     0.0    -0.0
"Line.12461018_ID5992"            1      623.6      370.3        0.0       -0.0    -0.0    -0.0        0.0        0.0        0.0        0.0
"Line.12461018_ID5992"            2     -623.6     -370.2       -0.0        0.0     0.0     0.0
"Line.363443284_ID5064"           1    -1766.2     -703.5       -0.0        0.0     0.0     0.0        0.0        0.0        0.0        0.0
"Line.363443284_ID5064"           2     1766.3      703.8        0.0       -0.0    -0.0    -0.0
"Line.363443292_ID4192"           1     2431.7     1059.5       -0.0       -0.0    -0.0    -0.0        0.0        0.0        0.0        0.0
"Line.363443292_ID4192"           2    -2431.4    -1059.0        0.0        0.0     0.0     0.0
"Line.12461020_ID3374"            1     2948.6     1170.1       -0.0        0.0     0.0     0.0        0.0        0.0        0.0        0.0
"Line.12461020_ID3374"            2    -2948.1    -1169.1        0.0       -0.0    -0.0    -0.0
"Line.5675027_ID6376"             1        0.0       -0.0       -0.0        0.0    -0.0     0.0        0.0        0.0        0.0        0.0
"Line.5675027_ID6376"             2       -0.0        0.0        0.0       -0.0     0.0    -0.0
"Line.5675530_ID5420"             1        0.0        0.0       -0.0       -0.0     0.0    -0.0        0.0        0.0        0.0        0.0
"Line.5675530_ID5420"             2       -0.0       -0.0        0.0        0.0    -0.0    -0.0
"Line.5675828_ID5421"             1        0.0        0.0       -0.0       -0.0    -0.0    -0.0        0.0        0.0        0.0        0.0
"Line.5675828_ID5421"             2       -0.0       -0.0        0.0        0.0    -0.0     0.0
"Line.5675829_ID5422"             1     1639.5      740.6       -0.0       -0.0    -0.0    -0.0        0.0        0.0        0.0        0.0
"Line.5675829_ID5422"             2    -1639.5     -740.6        0.0        0.0     0.0     0.0
"Line.5675005_ID5729"             1     -414.9     -198.5       -0.0        0.0     0.0     0.0        0.0        0.0        0.0        0.0
"Line.5675005_ID5729"             2      414.9      198.5        0.0       -0.0    -0.0    -0.0
"Line.5667238_ID4671"             1     1603.0      628.8       -0.0       -0.0    -0.0    -0.0      314.6      123.4        0.0        0.0
"Line.5667238_ID4671"             2    -1603.0     -628.8        0.0        0.0     0.0     0.0
"Line.12461019_ID6217"            1      853.0      208.7       -0.0       -0.0     0.0    -0.0        0.0        0.0        0.0        0.0
"Line.12461019_ID6217"            2     -853.0     -208.7        0.0        0.0    -0.0     0.0
"Line.12460927_ID5993"            1      623.6      370.2        0.0       -0.0    -0.0    -0.0        0.0        0.0        0.0        0.0
"Line.12460927_ID5993"            2     -623.6     -370.2       -0.0        0.0     0.0     0.0
"Line.12460929_ID3375"            1     2948.1     1169.1       -0.0        0.0     0.0     0.0        0.0        0.0        0.0        0.0
"Line.12460929_ID3375"            2    -2948.1    -1169.1        0.0       -0.0    -0.0    -0.0
"Line.5675026_ID6377"             1        0.0       -0.0       -0.0        0.0     0.0     0.0        0.0        0.0        0.0        0.0
"Line.5675026_ID6377"             2       -0.0        0.0        0.0       -0.0    -0.0    -0.0
"Line.363825500_ID6378"           1        0.0        0.0        0.0        0.0    -0.0     0.0        0.0        0.0        0.0        0.0
"Line.363825500_ID6378"           2       -0.0        0.0       -0.0       -0.0     0.0    -0.0
"Line.5675829_ID5423"             1    -1639.4     -740.5        0.0        0.0     0.0     0.0        0.0        0.0        0.0        0.0
"Line.5675829_ID5423"             2     1639.5      740.6       -0.0       -0.0    -0.0    -0.0
"Line.5675005_ID5730"             1      414.9      198.5        0.0       -0.0    -0.0    -0.0        0.0        0.0        0.0        0.0
"Line.5675005_ID5730"             2     -414.9     -198.5       -0.0        0.0     0.0     0.0
"Line.5667225_ID4672"             1    -1603.0     -628.7        0.0        0.0     0.0     0.0     -314.6     -123.4        0.0        0.0
"Line.5667225_ID4672"             2     1603.0      628.8       -0.0       -0.0    -0.0    -0.0
"Line.5667226_ID4673"             1       -0.0        0.0       -0.0        0.0     0.0    -0.0        0.0        0.0        0.0        0.0
"Line.5667226_ID4673"             2        0.0       -0.0        0.0        0.0    -0.0     0.0
...
"Transformer.DCAI_EQ_TR1_ID6787"  1     2066.5      840.0       -0.0       -0.0     0.0     0.0        0.0        0.0        0.0        0.0
"Transformer.DCAI_EQ_TR1_ID6787"  2    -2027.7     -833.6        0.0        0.0     0.0     0.0
"Transformer.DCAI_EQ_TR3_ID6786"  1     8671.3     3645.2       -0.0       -0.0    -0.0    -0.0        0.0        0.0        0.0        0.0
"Transformer.DCAI_EQ_TR3_ID6786"  2    -8632.7    -3531.5        0.0        0.1     0.0     0.0
"Transformer.DCAI_EQ_TR2_ID6785"  1     1679.0      746.3       -0.0       -0.0     0.0     0.0        0.0        0.0        0.0        0.0
"Transformer.DCAI_EQ_TR2_ID6785"  2    -1640.1     -741.9        0.0        0.0     0.0     0.0
"Load.152ET025018_ID6979"         1        0.0        0.0        0.0        0.0     0.0     0.0
"Load.152IP19G431_ID6980"         1        0.0        0.0        0.0        0.0     0.0     0.0
"Load.152ET000657_ID6981"         1       29.4       12.5        0.0        0.0     0.0    -0.0
"Load.152ET025407_ID6978"         1       17.9        7.6        0.0        0.0     0.0    -0.0
"Load.152ET007562_ID6977"         1        0.0        0.0        0.0        0.0     0.0     0.0
"Load.152ET004501_ID6982"         1       25.0       10.7        0.0        0.0     0.0    -0.0
"Load.152ET029938_ID6986"         1        3.4        1.4        0.0        0.0     0.0     0.0
"Load.152IP19G299_ID6984"         1        0.0        0.0        0.0        0.0     0.0     0.0
"Load.152ET071563_ID6985"         1        0.0        0.0        0.0        0.0     0.0     0.0
"Load.152IP19G297_ID6993"         1        0.0        0.0        0.0        0.0     0.0     0.0
"Load.152IP19G613_ID6994"         1        0.0        0.0        0.0        0.0     0.0     0.0
"Load.152ET024923_ID6998"         1       19.0        8.1        0.0        0.0     0.0     0.0
"Load.152ET051639_ID6999"         1       11.2        4.8        0.0        0.0     0.0    -0.0
"Load.152IP19G481_ID7003"         1        0.0        0.0        0.0        0.0     0.0     0.0
"Load.152IP19G479_ID7004"         1        0.0        0.0        0.0        0.0     0.0     0.0
"Load.152IP19G433_ID6991"         1        0.0        0.0        0.0        0.0     0.0     0.0
"Load.152IP19F043_ID7005"         1        0.0        0.0        0.0        0.0     0.0     0.0
"Load.152IP19G615_ID6990"         1        0.0        0.0        0.0        0.0     0.0     0.0
"Load.152ET024031_ID6992"         1        0.8        0.3        0.0        0.0     0.0    -0.0
"Load.152IP19G023_ID7000"         1        0.0        0.0        0.0        0.0     0.0     0.0
"Load.152IP19F046_ID6971"         1        0.0        0.0        0.0        0.0     0.0     0.0
"Load.152IP19F045_ID6970"         1        0.0        0.0        0.0        0.0     0.0     0.0
"Load.354IP19F177_ID6987"         1        0.0        0.0        0.0        0.0     0.0     0.0
"Load.354IP19F031_ID6988"         1        0.0        0.0        0.0        0.0     0.0     0.0
"Load.354IP19F179_ID6989"         1        0.0        0.0        0.0        0.0     0.0     0.0
"Load.152IP18G499_ID7012"         1        0.0        0.0        0.0        0.0     0.0     0.0
"Load.152IP18G498_ID7011"         1        0.0        0.0        0.0        0.0     0.0     0.0
"Load.152IP19G662_ID7015"         1        0.0        0.0        0.0        0.0     0.0     0.0
"Load.152IP19G642_ID7009"         1        0.0        0.0        0.0        0.0     0.0     0.0
"Load.152EP005588_ID7010"         1      248.0       92.6        0.0        0.0     0.0     0.0
"Load.152EP010714_ID7014"         1      109.8       79.4        0.0        0.0     0.0     0.0
"Load.152EP007289_ID7008"         1       19.6        5.5        0.0        0.0     0.0     0.0
"Load.152ET071513_ID7018"         1        1.4        0.6        0.0        0.0     0.0    -0.0
"Load.152EP004401_ID7006"         1      117.9       59.5        0.0        0.0    -0.0     0.0
"Load.152ET027203_ID7021"         1       13.0        5.5        0.0        0.0     0.0    -0.0
"Load.152IP19G515_ID7027"         1        0.0        0.0        0.0        0.0     0.0     0.0
"Load.152ET014788_ID7028"         1       32.3       13.8        0.0        0.0     0.0    -0.0
"Load.152ET131668_ID7036"         1       41.2       17.5        0.0        0.0     0.0     0.0
"Load.152ET053161_ID7047"         1        6.7        2.9        0.0        0.0     0.0    -0.0
"Load.152EP002726_ID7043"         1        2.3      -37.1        0.0       -0.0     0.0    -0.0
"Load.152ET098063_ID7038"         1       21.7        9.2        0.0        0.0     0.0    -0.0
"Load.152ET131669_ID7019"         1       49.1       20.9        0.0        0.0     0.0     0.0
"Load.152ET131670_ID7031"         1       25.0       10.6        0.0        0.0    -0.0     0.0
"Load.152EP045671_ID7039"         1        2.5        4.6        0.0        0.0    -0.0     0.0
"Load.152ET025815_ID7057"         1       24.2       10.3        0.0        0.0     0.0    -0.0
"Load.152ET071582_ID7048"         1       36.4       15.5        0.0        0.0     0.0    -0.0
"Load.152ET022069_ID7061"         1       15.9        6.8        0.0        0.0     0.0    -0.0
"Load.152EP052203_ID7046"         1        9.8       -4.0        0.0       -0.0     0.0     0.0
"Load.152ET017672_ID7053"         1       39.1       16.6        0.0        0.0     0.0    -0.0
"Load.152ET001281_ID7068"         1       37.2       15.9        0.0        0.0     0.0    -0.0
"Load.152ET056622_ID7041"         1       12.2        5.2        0.0        0.0     0.0    -0.0
"Load.152ET085321_ID7066"         1       16.5        7.0        0.0        0.0     0.0    -0.0
"Load.152ET034278_ID6972"         1       11.4        4.9        0.0        0.0     0.0    -0.0
"Load.152EP006209_ID7063"         1        6.6        6.2        0.0        0.0     0.0     0.0
...