ApiEletroposto/Content/Rede/Rede_CAI_teste_sem_trafos_VLN_elem.Txt

NODE-GROUND VOLTAGES BY CIRCUIT ELEMENT

Power Delivery Elements

Bus  (node ref)  Phase    Magnitude, kV (pu)    Angle

ELEMENT = "Vsource.SOURCE"
3326  (  1)    1           50.119 (  0.9865) /_   -1.0
3326  (  2)    2           50.092 (  0.9859) /_ -121.1
3326  (  3)    3           50.101 (  0.9861) /_  119.0
------------
3326  (  0)    1                0 (       0) /_    0.0
3326  (  0)    2                0 (       0) /_    0.0
3326  (  0)    3                0 (       0) /_    0.0

ELEMENT = "Line.12465653_ID5719"
2645  (  4)    1           7.8506 (  0.9853) /_  -31.2
2645  (  5)    2           7.8488 (  0.9851) /_ -151.2
2645  (  6)    3           7.8462 (  0.9848) /_   88.8
------------
3323  (  7)    1           7.8508 (  0.9854) /_  -31.2
3323  (  8)    2            7.849 (  0.9851) /_ -151.2
3323  (  9)    3           7.8464 (  0.9848) /_   88.8

ELEMENT = "Line.12465646_ID4662"
2221  ( 10)    1           7.8502 (  0.9853) /_  -31.2
2221  ( 11)    2           7.8483 (  0.9851) /_ -151.2
2221  ( 12)    3           7.8457 (  0.9847) /_   88.8
------------
3323  (  7)    1           7.8508 (  0.9854) /_  -31.2
3323  (  8)    2            7.849 (  0.9851) /_ -151.2
3323  (  9)    3           7.8464 (  0.9848) /_   88.8

ELEMENT = "Line.361598283_ID6421"
3312  ( 13)    1           7.8238 (   0.982) /_  -31.7
3312  ( 14)    2           7.8207 (  0.9816) /_ -151.7
3312  ( 15)    3           7.8182 (  0.9813) /_   88.3
------------
3324  ( 16)    1           7.8238 (   0.982) /_  -31.7
3324  ( 17)    2           7.8207 (  0.9816) /_ -151.7
3324  ( 18)    3           7.8182 (  0.9813) /_   88.3

ELEMENT = "Line.363434473_ID6207"
3324  ( 16)    1           7.8238 (   0.982) /_  -31.7
3324  ( 17)    2           7.8207 (  0.9816) /_ -151.7
3324  ( 18)    3           7.8182 (  0.9813) /_   88.3
------------
927   ( 19)    1           7.8238 (   0.982) /_  -31.7
927   ( 20)    2           7.8206 (  0.9816) /_ -151.7
927   ( 21)    3           7.8182 (  0.9813) /_   88.3

ELEMENT = "Line.363434188_ID5983"
1972  ( 22)    1           7.8237 (   0.982) /_  -31.7
1972  ( 23)    2           7.8205 (  0.9816) /_ -151.7
1972  ( 24)    3           7.8181 (  0.9813) /_   88.3
------------
3324  ( 16)    1           7.8238 (   0.982) /_  -31.7
3324  ( 17)    2           7.8207 (  0.9816) /_ -151.7
3324  ( 18)    3           7.8182 (  0.9813) /_   88.3

ELEMENT = "Line.361598269_ID5059"
3324  ( 16)    1           7.8238 (   0.982) /_  -31.7
3324  ( 17)    2           7.8207 (  0.9816) /_ -151.7
3324  ( 18)    3           7.8182 (  0.9813) /_   88.3
------------
13    ( 25)    1           7.8233 (  0.9819) /_  -31.7
13    ( 26)    2           7.8201 (  0.9815) /_ -151.7
13    ( 27)    3           7.8176 (  0.9812) /_   88.3

ELEMENT = "Line.361598276_ID4187"
436   ( 28)    1            7.823 (  0.9819) /_  -31.7
436   ( 29)    2           7.8198 (  0.9815) /_ -151.7
436   ( 30)    3           7.8174 (  0.9812) /_   88.3
------------
3324  ( 16)    1           7.8238 (   0.982) /_  -31.7
3324  ( 17)    2           7.8207 (  0.9816) /_ -151.7
3324  ( 18)    3           7.8182 (  0.9813) /_   88.3

ELEMENT = "Line.363434459_ID3365"
3324  ( 16)    1           7.8238 (   0.982) /_  -31.7
3324  ( 17)    2           7.8207 (  0.9816) /_ -151.7
3324  ( 18)    3           7.8182 (  0.9813) /_   88.3
------------
1100  ( 31)    1           7.8232 (  0.9819) /_  -31.7
1100  ( 32)    2           7.8201 (  0.9815) /_ -151.7
1100  ( 33)    3           7.8176 (  0.9812) /_   88.3

ELEMENT = "Line.12465652_ID6367"
3247  ( 34)    1           7.8516 (  0.9855) /_  -31.2
3247  ( 35)    2           7.8502 (  0.9853) /_ -151.2
3247  ( 36)    3           7.8473 (  0.9849) /_   88.8
------------
3325  ( 37)    1           7.8516 (  0.9855) /_  -31.2
3325  ( 38)    2           7.8502 (  0.9853) /_ -151.2
3325  ( 39)    3           7.8473 (  0.9849) /_   88.8

ELEMENT = "Line.12465654_ID5411"
2922  ( 40)    1           7.8511 (  0.9854) /_  -31.2
2922  ( 41)    2           7.8496 (  0.9852) /_ -151.2
2922  ( 42)    3           7.8468 (  0.9849) /_   88.8
------------
3325  ( 37)    1           7.8516 (  0.9855) /_  -31.2
3325  ( 38)    2           7.8502 (  0.9853) /_ -151.2
3325  ( 39)    3           7.8473 (  0.9849) /_   88.8

ELEMENT = "Line.12465633_ID5720"
2648  ( 43)    1           7.8505 (  0.9853) /_  -31.2
2648  ( 44)    2           7.8487 (  0.9851) /_ -151.2
2648  ( 45)    3           7.8461 (  0.9848) /_   88.8
------------
2645  (  4)    1           7.8506 (  0.9853) /_  -31.2
2645  (  5)    2           7.8488 (  0.9851) /_ -151.2
2645  (  6)    3           7.8462 (  0.9848) /_   88.8

ELEMENT = "Line.12465631_ID4663"
2223  ( 46)    1           7.8497 (  0.9852) /_  -31.2
2223  ( 47)    2           7.8478 (   0.985) /_ -151.2
2223  ( 48)    3           7.8452 (  0.9847) /_   88.8
------------
2221  ( 10)    1           7.8502 (  0.9853) /_  -31.2
2221  ( 11)    2           7.8483 (  0.9851) /_ -151.2
2221  ( 12)    3           7.8457 (  0.9847) /_   88.8

ELEMENT = "Line.12465658_ID6208"
927   ( 19)    1           7.8238 (   0.982) /_  -31.7
927   ( 20)    2           7.8206 (  0.9816) /_ -151.7
927   ( 21)    3           7.8182 (  0.9813) /_   88.3
------------
928   ( 49)    1           7.8236 (  0.9819) /_  -31.7
928   ( 50)    2           7.8205 (  0.9816) /_ -151.7
928   ( 51)    3            7.818 (  0.9812) /_   88.3

ELEMENT = "Line.12465648_ID5984"
1972  ( 22)    1           7.8237 (   0.982) /_  -31.7
1972  ( 23)    2           7.8205 (  0.9816) /_ -151.7
1972  ( 24)    3           7.8181 (  0.9813) /_   88.3
------------
1973  ( 52)    1           7.8235 (  0.9819) /_  -31.7
1973  ( 53)    2           7.8203 (  0.9815) /_ -151.7
1973  ( 54)    3           7.8179 (  0.9812) /_   88.3

ELEMENT = "Line.12465656_ID3366"
1100  ( 31)    1           7.8232 (  0.9819) /_  -31.7
1100  ( 32)    2           7.8201 (  0.9815) /_ -151.7
1100  ( 33)    3           7.8176 (  0.9812) /_   88.3
------------
1101  ( 55)    1           7.8225 (  0.9818) /_  -31.7
1101  ( 56)    2           7.8194 (  0.9814) /_ -151.7
1101  ( 57)    3           7.8169 (  0.9811) /_   88.3

ELEMENT = "Line.12465627_ID6368"
3247  ( 34)    1           7.8516 (  0.9855) /_  -31.2
3247  ( 35)    2           7.8502 (  0.9853) /_ -151.2
3247  ( 36)    3           7.8473 (  0.9849) /_   88.8
------------
3248  ( 58)    1           7.8516 (  0.9855) /_  -31.2
3248  ( 59)    2           7.8502 (  0.9853) /_ -151.2
3248  ( 60)    3           7.8473 (  0.9849) /_   88.8

ELEMENT = "Line.12465632_ID5412"
2922  ( 40)    1           7.8511 (  0.9854) /_  -31.2
2922  ( 41)    2           7.8496 (  0.9852) /_ -151.2
2922  ( 42)    3           7.8468 (  0.9849) /_   88.8
------------
2924  ( 61)    1           7.8506 (  0.9853) /_  -31.2
2924  ( 62)    2           7.8491 (  0.9851) /_ -151.2
2924  ( 63)    3           7.8462 (  0.9848) /_   88.8

ELEMENT = "Line.12465599_ID5721"
2647  ( 64)    1           7.8499 (  0.9853) /_  -31.2
2647  ( 65)    2           7.8481 (   0.985) /_ -151.2
2647  ( 66)    3           7.8455 (  0.9847) /_   88.8
------------
2648  ( 43)    1           7.8505 (  0.9853) /_  -31.2
2648  ( 44)    2           7.8487 (  0.9851) /_ -151.2
2648  ( 45)    3           7.8461 (  0.9848) /_   88.8

ELEMENT = "Line.12465600_ID4664"
2222  ( 67)    1           7.8478 (   0.985) /_  -31.2
2222  ( 68)    2           7.8459 (  0.9847) /_ -151.2
2222  ( 69)    3           7.8433 (  0.9844) /_   88.8
------------
2223  ( 46)    1           7.8497 (  0.9852) /_  -31.2
2223  ( 47)    2           7.8478 (   0.985) /_ -151.2
2223  ( 48)    3           7.8452 (  0.9847) /_   88.8

ELEMENT = "Line.363435145_ID6422"
3311  ( 70)    1           7.8238 (   0.982) /_  -31.7
3311  ( 71)    2           7.8207 (  0.9816) /_ -151.7
3311  ( 72)    3           7.8182 (  0.9813) /_   88.3
------------
3312  ( 13)    1           7.8238 (   0.982) /_  -31.7
3312  ( 14)    2           7.8207 (  0.9816) /_ -151.7
3312  ( 15)    3           7.8182 (  0.9813) /_   88.3

ELEMENT = "Line.12465658_ID6209"
929   ( 73)    1           7.8236 (  0.9819) /_  -31.7
929   ( 74)    2           7.8204 (  0.9816) /_ -151.7
929   ( 75)    3            7.818 (  0.9812) /_   88.3
------------
928   ( 49)    1           7.8236 (  0.9819) /_  -31.7
928   ( 50)    2           7.8205 (  0.9816) /_ -151.7
928   ( 51)    3            7.818 (  0.9812) /_   88.3

ELEMENT = "Line.12465628_ID5985"
1973  ( 52)    1           7.8235 (  0.9819) /_  -31.7
1973  ( 53)    2           7.8203 (  0.9815) /_ -151.7
1973  ( 54)    3           7.8179 (  0.9812) /_   88.3
------------
1975  ( 76)    1           7.8233 (  0.9819) /_  -31.7
1975  ( 77)    2           7.8201 (  0.9815) /_ -151.7
1975  ( 78)    3           7.8177 (  0.9812) /_   88.3

ELEMENT = "Line.363435121_ID5060"
13    ( 25)    1           7.8233 (  0.9819) /_  -31.7
13    ( 26)    2           7.8201 (  0.9815) /_ -151.7
13    ( 27)    3           7.8176 (  0.9812) /_   88.3
------------
12    ( 79)    1           7.8217 (  0.9817) /_  -31.7
12    ( 80)    2           7.8184 (  0.9813) /_ -151.7
12    ( 81)    3            7.816 (   0.981) /_   88.3

ELEMENT = "Line.363435071_ID4188"
436   ( 28)    1            7.823 (  0.9819) /_  -31.7
436   ( 29)    2           7.8198 (  0.9815) /_ -151.7
436   ( 30)    3           7.8174 (  0.9812) /_   88.3
------------
434   ( 82)    1           7.8208 (  0.9816) /_  -31.7
434   ( 83)    2           7.8174 (  0.9812) /_ -151.7
434   ( 84)    3            7.815 (  0.9809) /_   88.3

ELEMENT = "Line.12465630_ID3367"
1101  ( 55)    1           7.8225 (  0.9818) /_  -31.7
1101  ( 56)    2           7.8194 (  0.9814) /_ -151.7
1101  ( 57)    3           7.8169 (  0.9811) /_   88.3
------------
1103  ( 85)    1           7.8216 (  0.9817) /_  -31.7
1103  ( 86)    2           7.8185 (  0.9813) /_ -151.7
1103  ( 87)    3            7.816 (   0.981) /_   88.3

ELEMENT = "Line.12465594_ID6369"
3248  ( 58)    1           7.8516 (  0.9855) /_  -31.2
3248  ( 59)    2           7.8502 (  0.9853) /_ -151.2
3248  ( 60)    3           7.8473 (  0.9849) /_   88.8
------------
3249  ( 88)    1           7.8516 (  0.9855) /_  -31.2
3249  ( 89)    2           7.8502 (  0.9853) /_ -151.2
3249  ( 90)    3           7.8473 (  0.9849) /_   88.8

ELEMENT = "Line.12465603_ID5413"
2923  ( 91)    1           7.8485 (  0.9851) /_  -31.2
2923  ( 92)    2            7.847 (  0.9849) /_ -151.2
2923  ( 93)    3           7.8441 (  0.9845) /_   88.8
------------
2924  ( 61)    1           7.8506 (  0.9853) /_  -31.2
2924  ( 62)    2           7.8491 (  0.9851) /_ -151.2
2924  ( 63)    3           7.8462 (  0.9848) /_   88.8

ELEMENT = "Line.12465599_ID5722"
2646  ( 94)    1           7.8498 (  0.9852) /_  -31.2
2646  ( 95)    2            7.848 (   0.985) /_ -151.2
2646  ( 96)    3           7.8454 (  0.9847) /_   88.8
------------
2647  ( 64)    1           7.8499 (  0.9853) /_  -31.2
2647  ( 65)    2           7.8481 (   0.985) /_ -151.2
2647  ( 66)    3           7.8455 (  0.9847) /_   88.8

ELEMENT = "Line.12465600_ID4665"
2227  ( 97)    1           7.8476 (   0.985) /_  -31.2
2227  ( 98)    2           7.8457 (  0.9847) /_ -151.2
2227  ( 99)    3           7.8431 (  0.9844) /_   88.8
------------
2222  ( 67)    1           7.8478 (   0.985) /_  -31.2
2222  ( 68)    2           7.8459 (  0.9847) /_ -151.2
2222  ( 69)    3           7.8433 (  0.9844) /_   88.8

ELEMENT = "Line.12465629_ID6210"
931   (100)    1           7.8234 (  0.9819) /_  -31.7
931   (101)    2           7.8202 (  0.9815) /_ -151.7
931   (102)    3           7.8177 (  0.9812) /_   88.3
------------
929   ( 73)    1           7.8236 (  0.9819) /_  -31.7
929   ( 74)    2           7.8204 (  0.9816) /_ -151.7
929   ( 75)    3            7.818 (  0.9812) /_   88.3

ELEMENT = "Line.12465596_ID5986"
1975  ( 76)    1           7.8233 (  0.9819) /_  -31.7
1975  ( 77)    2           7.8201 (  0.9815) /_ -151.7
1975  ( 78)    3           7.8177 (  0.9812) /_   88.3
------------
1974  (103)    1           7.8224 (  0.9818) /_  -31.7
1974  (104)    2           7.8191 (  0.9814) /_ -151.7
1974  (105)    3           7.8168 (  0.9811) /_   88.3

ELEMENT = "Line.12465602_ID3368"
1102  (106)    1           7.8181 (  0.9813) /_  -31.7
1102  (107)    2            7.815 (  0.9809) /_ -151.8
1102  (108)    3           7.8125 (  0.9805) /_   88.3
------------
1103  ( 85)    1           7.8216 (  0.9817) /_  -31.7
1103  ( 86)    2           7.8185 (  0.9813) /_ -151.7
1103  ( 87)    3            7.816 (   0.981) /_   88.3

ELEMENT = "Line.12465586_ID6370"
3249  ( 88)    1           7.8516 (  0.9855) /_  -31.2
3249  ( 89)    2           7.8502 (  0.9853) /_ -151.2
3249  ( 90)    3           7.8473 (  0.9849) /_   88.8
------------
3269  (109)    1           7.8516 (  0.9855) /_  -31.2
3269  (110)    2           7.8502 (  0.9853) /_ -151.2
3269  (111)    3           7.8473 (  0.9849) /_   88.8

ELEMENT = "Line.12465603_ID5414"
2926  (112)    1           7.8483 (   0.985) /_  -31.2
2926  (113)    2           7.8467 (  0.9849) /_ -151.2
2926  (114)    3           7.8438 (  0.9845) /_   88.8
------------
2923  ( 91)    1           7.8485 (  0.9851) /_  -31.2
2923  ( 92)    2            7.847 (  0.9849) /_ -151.2
2923  ( 93)    3           7.8441 (  0.9845) /_   88.8

ELEMENT = "Line.12465599_ID5723"
2646  ( 94)    1           7.8498 (  0.9852) /_  -31.2
2646  ( 95)    2            7.848 (   0.985) /_ -151.2
2646  ( 96)    3           7.8454 (  0.9847) /_   88.8
------------
2649  (115)    1           7.8497 (  0.9852) /_  -31.2
2649  (116)    2           7.8478 (   0.985) /_ -151.2
2649  (117)    3           7.8453 (  0.9847) /_   88.8

ELEMENT = "Line.12465589_ID4666"
2226  (118)    1           7.8455 (  0.9847) /_  -31.2
2226  (119)    2           7.8435 (  0.9844) /_ -151.3
2226  (120)    3           7.8409 (  0.9841) /_   88.8
------------
2227  ( 97)    1           7.8476 (   0.985) /_  -31.2
2227  ( 98)    2           7.8457 (  0.9847) /_ -151.2
2227  ( 99)    3           7.8431 (  0.9844) /_   88.8

ELEMENT = "Line.363435311_ID6423"
3309  (121)    1           7.8238 (   0.982) /_  -31.7
3309  (122)    2           7.8207 (  0.9816) /_ -151.7
3309  (123)    3           7.8182 (  0.9813) /_   88.3
------------
3311  ( 70)    1           7.8238 (   0.982) /_  -31.7
3311  ( 71)    2           7.8207 (  0.9816) /_ -151.7
3311  ( 72)    3           7.8182 (  0.9813) /_   88.3

ELEMENT = "Line.12465598_ID6211"
930   (124)    1           7.8226 (  0.9818) /_  -31.7
930   (125)    2           7.8194 (  0.9814) /_ -151.7
930   (126)    3           7.8169 (  0.9811) /_   88.3
------------
931   (100)    1           7.8234 (  0.9819) /_  -31.7
931   (101)    2           7.8202 (  0.9815) /_ -151.7
931   (102)    3           7.8177 (  0.9812) /_   88.3

ELEMENT = "Line.12465596_ID5987"
1974  (103)    1           7.8224 (  0.9818) /_  -31.7
1974  (104)    2           7.8191 (  0.9814) /_ -151.7
1974  (105)    3           7.8168 (  0.9811) /_   88.3
------------
1978  (127)    1           7.8223 (  0.9818) /_  -31.7
1978  (128)    2           7.8191 (  0.9814) /_ -151.7
1978  (129)    3           7.8167 (  0.9811) /_   88.3

ELEMENT = "Line.363435153_ID5061"
12    ( 79)    1           7.8217 (  0.9817) /_  -31.7
12    ( 80)    2           7.8184 (  0.9813) /_ -151.7
12    ( 81)    3            7.816 (   0.981) /_   88.3
------------
9     (130)    1           7.8202 (  0.9815) /_  -31.7
9     (131)    2           7.8167 (  0.9811) /_ -151.7
9     (132)    3           7.8144 (  0.9808) /_   88.3

ELEMENT = "Line.363435303_ID4189"
432   (133)    1           7.8186 (  0.9813) /_  -31.7
432   (134)    2           7.8151 (  0.9809) /_ -151.7
432   (135)    3           7.8127 (  0.9806) /_   88.3
------------
434   ( 82)    1           7.8208 (  0.9816) /_  -31.7
434   ( 83)    2           7.8174 (  0.9812) /_ -151.7
434   ( 84)    3            7.815 (  0.9809) /_   88.3

ELEMENT = "Line.12465602_ID3369"
1102  (106)    1           7.8181 (  0.9813) /_  -31.7
1102  (107)    2            7.815 (  0.9809) /_ -151.8
1102  (108)    3           7.8125 (  0.9805) /_   88.3
------------
1106  (136)    1           7.8174 (  0.9812) /_  -31.7
1106  (137)    2           7.8143 (  0.9808) /_ -151.8
1106  (138)    3           7.8118 (  0.9805) /_   88.3

ELEMENT = "Line.12465588_ID5415"
2925  (139)    1           7.8473 (  0.9849) /_  -31.2
2925  (140)    2           7.8458 (  0.9847) /_ -151.2
2925  (141)    3           7.8429 (  0.9844) /_   88.8
------------
2926  (112)    1           7.8483 (   0.985) /_  -31.2
2926  (113)    2           7.8467 (  0.9849) /_ -151.2
2926  (114)    3           7.8438 (  0.9845) /_   88.8

ELEMENT = "Line.12465584_ID5724"
2649  (115)    1           7.8497 (  0.9852) /_  -31.2
2649  (116)    2           7.8478 (   0.985) /_ -151.2
2649  (117)    3           7.8453 (  0.9847) /_   88.8
------------
2835  (142)    1           7.8497 (  0.9852) /_  -31.2
2835  (143)    2           7.8478 (   0.985) /_ -151.2
2835  (144)    3           7.8453 (  0.9847) /_   88.8

ELEMENT = "Line.12465589_ID4667"
2225  (145)    1           7.8431 (  0.9844) /_  -31.2
2225  (146)    2           7.8409 (  0.9841) /_ -151.3
2225  (147)    3           7.8384 (  0.9838) /_   88.8
------------
2226  (118)    1           7.8455 (  0.9847) /_  -31.2
2226  (119)    2           7.8435 (  0.9844) /_ -151.3
2226  (120)    3           7.8409 (  0.9841) /_   88.8

ELEMENT = "Line.12465598_ID6212"
930   (124)    1           7.8226 (  0.9818) /_  -31.7
930   (125)    2           7.8194 (  0.9814) /_ -151.7
930   (126)    3           7.8169 (  0.9811) /_   88.3
------------
934   (148)    1           7.8224 (  0.9818) /_  -31.7
934   (149)    2           7.8193 (  0.9814) /_ -151.7
934   (150)    3           7.8167 (  0.9811) /_   88.3

ELEMENT = "Line.12465587_ID5988"
1977  (151)    1           7.8213 (  0.9817) /_  -31.7
1977  (152)    2            7.818 (  0.9812) /_ -151.7
1977  (153)    3           7.8157 (   0.981) /_   88.3
------------
1978  (127)    1           7.8223 (  0.9818) /_  -31.7
1978  (128)    2           7.8191 (  0.9814) /_ -151.7
1978  (129)    3           7.8167 (  0.9811) /_   88.3

ELEMENT = "Line.12465590_ID3370"
1105  (154)    1           7.8133 (  0.9807) /_  -31.7
1105  (155)    2           7.8102 (  0.9803) /_ -151.8
1105  (156)    3           7.8076 (  0.9799) /_   88.2
------------
1106  (136)    1           7.8174 (  0.9812) /_  -31.7
1106  (137)    2           7.8143 (  0.9808) /_ -151.8
1106  (138)    3           7.8118 (  0.9805) /_   88.3

ELEMENT = "Line.5675047_ID6371"
3267  (157)    1           7.8516 (  0.9855) /_  -31.2
3267  (158)    2           7.8502 (  0.9853) /_ -151.2
3267  (159)    3           7.8473 (  0.9849) /_   88.8
3267  (160)    4       0.00049756 (6.245E-005) /_ -173.7
------------
3269  (109)    1           7.8516 (  0.9855) /_  -31.2
3269  (110)    2           7.8502 (  0.9853) /_ -151.2
3269  (111)    3           7.8473 (  0.9849) /_   88.8
3269  (161)    4       0.00049756 (6.245E-005) /_ -173.7

ELEMENT = "Line.12465638_ID5416"
2925  (139)    1           7.8473 (  0.9849) /_  -31.2
2925  (140)    2           7.8458 (  0.9847) /_ -151.2
2925  (141)    3           7.8429 (  0.9844) /_   88.8
------------
3029  (162)    1           7.8473 (  0.9849) /_  -31.2
3029  (163)    2           7.8458 (  0.9847) /_ -151.2
3029  (164)    3           7.8429 (  0.9844) /_   88.8

ELEMENT = "Line.12465589_ID4668"
2224  (165)    1           7.8422 (  0.9843) /_  -31.2
2224  (166)    2             7.84 (   0.984) /_ -151.3
2224  (167)    3           7.8375 (  0.9837) /_   88.7
------------
2225  (145)    1           7.8431 (  0.9844) /_  -31.2
2225  (146)    2           7.8409 (  0.9841) /_ -151.3
2225  (147)    3           7.8384 (  0.9838) /_   88.8

ELEMENT = "Line.363438455_ID6424"
3306  (168)    1           7.8238 (   0.982) /_  -31.7
3306  (169)    2           7.8207 (  0.9816) /_ -151.7
3306  (170)    3           7.8182 (  0.9813) /_   88.3
------------
3309  (121)    1           7.8238 (   0.982) /_  -31.7
3309  (122)    2           7.8207 (  0.9816) /_ -151.7
3309  (123)    3           7.8182 (  0.9813) /_   88.3

ELEMENT = "Line.12465597_ID6213"
933   (171)    1           7.8215 (  0.9817) /_  -31.7
933   (172)    2           7.8183 (  0.9813) /_ -151.7
933   (173)    3           7.8157 (   0.981) /_   88.3
------------
934   (148)    1           7.8224 (  0.9818) /_  -31.7
934   (149)    2           7.8193 (  0.9814) /_ -151.7
934   (150)    3           7.8167 (  0.9811) /_   88.3

ELEMENT = "Line.12465587_ID5989"
1977  (151)    1           7.8213 (  0.9817) /_  -31.7
1977  (152)    2            7.818 (  0.9812) /_ -151.7
1977  (153)    3           7.8157 (   0.981) /_   88.3
------------
1976  (174)    1           7.8201 (  0.9815) /_  -31.7
1976  (175)    2           7.8167 (  0.9811) /_ -151.7
1976  (176)    3           7.8145 (  0.9808) /_   88.3

ELEMENT = "Line.363435319_ID5062"
9     (130)    1           7.8202 (  0.9815) /_  -31.7
9     (131)    2           7.8167 (  0.9811) /_ -151.7
9     (132)    3           7.8144 (  0.9808) /_   88.3
------------
7     (177)    1           7.8179 (  0.9812) /_  -31.7
7     (178)    2           7.8141 (  0.9808) /_ -151.8
7     (179)    3           7.8119 (  0.9805) /_   88.3

ELEMENT = "Line.363438448_ID4190"
431   (180)    1           7.8152 (  0.9809) /_  -31.7
431   (181)    2           7.8114 (  0.9804) /_ -151.8
431   (182)    3           7.8091 (  0.9801) /_   88.3
------------
432   (133)    1           7.8186 (  0.9813) /_  -31.7
432   (134)    2           7.8151 (  0.9809) /_ -151.7
432   (135)    3           7.8127 (  0.9806) /_   88.3

ELEMENT = "Line.12465590_ID3371"
1105  (154)    1           7.8133 (  0.9807) /_  -31.7
1105  (155)    2           7.8102 (  0.9803) /_ -151.8
1105  (156)    3           7.8076 (  0.9799) /_   88.2
------------
1104  (183)    1           7.8086 (  0.9801) /_  -31.8
1104  (184)    2           7.8056 (  0.9797) /_ -151.8
1104  (185)    3           7.8029 (  0.9793) /_   88.2

ELEMENT = "Line.5675058_ID6372"
3266  (186)    1           7.8516 (  0.9855) /_  -31.2
3266  (187)    2           7.8502 (  0.9853) /_ -151.2
3266  (188)    3           7.8473 (  0.9849) /_   88.8
------------
3267  (157)    1           7.8516 (  0.9855) /_  -31.2
3267  (158)    2           7.8502 (  0.9853) /_ -151.2
3267  (159)    3           7.8473 (  0.9849) /_   88.8

ELEMENT = "Line.5675059_ID6373"
3264  (189)    1           7.8516 (  0.9855) /_  -31.2
3264  (190)    2           7.8502 (  0.9853) /_ -151.2
3264  (191)    3           7.8473 (  0.9849) /_   88.8
3264  (192)    4       0.00049756 (6.245E-005) /_ -173.7
------------
3267  (157)    1           7.8516 (  0.9855) /_  -31.2
3267  (158)    2           7.8502 (  0.9853) /_ -151.2
3267  (159)    3           7.8473 (  0.9849) /_   88.8
3267  (160)    4       0.00049756 (6.245E-005) /_ -173.7

ELEMENT = "Line.5674994_ID5725"
2833  (193)    1           7.8497 (  0.9852) /_  -31.2
2833  (194)    2           7.8478 (   0.985) /_ -151.2
2833  (195)    3           7.8453 (  0.9847) /_   88.8
2833  (196)    4        0.0013259 (0.0001664) /_ -121.6
------------
2835  (142)    1           7.8497 (  0.9852) /_  -31.2
2835  (143)    2           7.8478 (   0.985) /_ -151.2
2835  (144)    3           7.8453 (  0.9847) /_   88.8
2835  (197)    4        0.0013259 (0.0001664) /_ -121.6

ELEMENT = "Line.12465589_ID4669"
2224  (165)    1           7.8422 (  0.9843) /_  -31.2
2224  (166)    2             7.84 (   0.984) /_ -151.3
2224  (167)    3           7.8375 (  0.9837) /_   88.7
------------
2228  (198)    1           7.8411 (  0.9841) /_  -31.2
2228  (199)    2           7.8388 (  0.9839) /_ -151.3
2228  (200)    3           7.8363 (  0.9835) /_   88.7

ELEMENT = "Line.12465597_ID6214"
932   (201)    1           7.8204 (  0.9815) /_  -31.7
932   (202)    2           7.8172 (  0.9811) /_ -151.7
932   (203)    3           7.8145 (  0.9808) /_   88.3
------------
933   (171)    1           7.8215 (  0.9817) /_  -31.7
933   (172)    2           7.8183 (  0.9813) /_ -151.7
933   (173)    3           7.8157 (   0.981) /_   88.3

ELEMENT = "Line.12465587_ID5990"
1980  (204)    1           7.8197 (  0.9815) /_  -31.7
1980  (205)    2           7.8163 (   0.981) /_ -151.7
1980  (206)    3           7.8141 (  0.9808) /_   88.3
------------
1976  (174)    1           7.8201 (  0.9815) /_  -31.7
1976  (175)    2           7.8167 (  0.9811) /_ -151.7
1976  (176)    3           7.8145 (  0.9808) /_   88.3

ELEMENT = "Line.12465590_ID3372"
1104  (183)    1           7.8086 (  0.9801) /_  -31.8
1104  (184)    2           7.8056 (  0.9797) /_ -151.8
1104  (185)    3           7.8029 (  0.9793) /_   88.2
------------
1108  (207)    1           7.8069 (  0.9799) /_  -31.8
1108  (208)    2           7.8039 (  0.9795) /_ -151.8
1108  (209)    3           7.8012 (  0.9791) /_   88.2

ELEMENT = "Line.5675058_ID6374"
3265  (210)    1           7.8516 (  0.9855) /_  -31.2
3265  (211)    2           7.8502 (  0.9853) /_ -151.2
3265  (212)    3           7.8473 (  0.9849) /_   88.8
------------
3266  (186)    1           7.8516 (  0.9855) /_  -31.2
3266  (187)    2           7.8502 (  0.9853) /_ -151.2
3266  (188)    3           7.8473 (  0.9849) /_   88.8

ELEMENT = "Line.5675532_ID5417"
3029  (162)    1           7.8473 (  0.9849) /_  -31.2
3029  (163)    2           7.8458 (  0.9847) /_ -151.2
3029  (164)    3           7.8429 (  0.9844) /_   88.8
3029  (213)    4       0.00071128 (8.927E-005) /_  178.4
------------
3034  (214)    1           7.8473 (  0.9849) /_  -31.2
3034  (215)    2           7.8458 (  0.9847) /_ -151.2
3034  (216)    3           7.8428 (  0.9844) /_   88.8
3034  (217)    4       0.00071127 (8.927E-005) /_  178.4

ELEMENT = "Line.5675005_ID5726"
2832  (218)    1           7.8496 (  0.9852) /_  -31.2
2832  (219)    2           7.8477 (   0.985) /_ -151.2
2832  (220)    3           7.8452 (  0.9847) /_   88.8
------------
2833  (193)    1           7.8497 (  0.9852) /_  -31.2
2833  (194)    2           7.8478 (   0.985) /_ -151.2
2833  (195)    3           7.8453 (  0.9847) /_   88.8

ELEMENT = "Line.5675006_ID5727"
2823  (221)    1           7.8497 (  0.9852) /_  -31.2
2823  (222)    2           7.8478 (   0.985) /_ -151.2
2823  (223)    3           7.8453 (  0.9847) /_   88.8
2823  (224)    4        0.0013259 (0.0001664) /_ -121.6
------------
2833  (193)    1           7.8497 (  0.9852) /_  -31.2
2833  (194)    2           7.8478 (   0.985) /_ -151.2
2833  (195)    3           7.8453 (  0.9847) /_   88.8
2833  (196)    4        0.0013259 (0.0001664) /_ -121.6

ELEMENT = "Line.12460924_ID4670"
2228  (198)    1           7.8411 (  0.9841) /_  -31.2
2228  (199)    2           7.8388 (  0.9839) /_ -151.3
2228  (200)    3           7.8363 (  0.9835) /_   88.7
------------
2285  (225)    1            7.841 (  0.9841) /_  -31.2
2285  (226)    2           7.8387 (  0.9838) /_ -151.3
2285  (227)    3           7.8362 (  0.9835) /_   88.7

ELEMENT = "Line.363438468_ID6425"
3306  (168)    1           7.8238 (   0.982) /_  -31.7
3306  (169)    2           7.8207 (  0.9816) /_ -151.7
3306  (170)    3           7.8182 (  0.9813) /_   88.3
------------
3304  (228)    1           7.8238 (   0.982) /_  -31.7
3304  (229)    2           7.8207 (  0.9816) /_ -151.7
3304  (230)    3           7.8182 (  0.9813) /_   88.3

ELEMENT = "Line.12465597_ID6215"
936   (231)    1             7.82 (  0.9815) /_  -31.7
936   (232)    2           7.8168 (  0.9811) /_ -151.7
936   (233)    3           7.8141 (  0.9807) /_   88.3
------------
932   (201)    1           7.8204 (  0.9815) /_  -31.7
932   (202)    2           7.8172 (  0.9811) /_ -151.7
932   (203)    3           7.8145 (  0.9808) /_   88.3

ELEMENT = "Line.12461017_ID5991"
1979  (234)    1           7.8188 (  0.9813) /_  -31.7
1979  (235)    2           7.8153 (  0.9809) /_ -151.7
1979  (236)    3           7.8132 (  0.9806) /_   88.3
------------
1980  (204)    1           7.8197 (  0.9815) /_  -31.7
1980  (205)    2           7.8163 (   0.981) /_ -151.7
1980  (206)    3           7.8141 (  0.9808) /_   88.3

ELEMENT = "Line.363439152_ID5063"
5     (237)    1           7.8153 (  0.9809) /_  -31.7
5     (238)    2           7.8112 (  0.9804) /_ -151.8
5     (239)    3           7.8091 (  0.9801) /_   88.3
------------
7     (177)    1           7.8179 (  0.9812) /_  -31.7
7     (178)    2           7.8141 (  0.9808) /_ -151.8
7     (179)    3           7.8119 (  0.9805) /_   88.3

ELEMENT = "Line.363439161_ID4191"
431   (180)    1           7.8152 (  0.9809) /_  -31.7
431   (181)    2           7.8114 (  0.9804) /_ -151.8
431   (182)    3           7.8091 (  0.9801) /_   88.3
------------
428   (240)    1           7.8114 (  0.9804) /_  -31.7
428   (241)    2           7.8073 (  0.9799) /_ -151.8
428   (242)    3           7.8051 (  0.9796) /_   88.2

ELEMENT = "Line.12461016_ID3373"
1107  (243)    1           7.8033 (  0.9794) /_  -31.8
1107  (244)    2           7.8004 (   0.979) /_ -151.8
1107  (245)    3           7.7976 (  0.9787) /_   88.2
------------
1108  (207)    1           7.8069 (  0.9799) /_  -31.8
1108  (208)    2           7.8039 (  0.9795) /_ -151.8
1108  (209)    3           7.8012 (  0.9791) /_   88.2

ELEMENT = "Line.5675058_ID6375"
3265  (210)    1           7.8516 (  0.9855) /_  -31.2
3265  (211)    2           7.8502 (  0.9853) /_ -151.2
3265  (212)    3           7.8473 (  0.9849) /_   88.8
------------
3277  (246)    1           7.8516 (  0.9855) /_  -31.2
3277  (247)    2           7.8502 (  0.9853) /_ -151.2
3277  (248)    3           7.8473 (  0.9849) /_   88.8

ELEMENT = "Line.5675530_ID5418"
3033  (249)    1           7.8473 (  0.9849) /_  -31.2
3033  (250)    2           7.8458 (  0.9847) /_ -151.2
3033  (251)    3           7.8428 (  0.9844) /_   88.8
------------
3034  (214)    1           7.8473 (  0.9849) /_  -31.2
...